$DATA1 SOURCE='HSPICE' VERSION='N-2017.12-SP2 linux64' PARAM_COUNT=1
.TITLE '.protect'
 delay            tdc              tcq              temper          
                  alter#          
  1.900e-08        1.000e-09        1.491e-10         25.0000       
                 1               
  1.901e-08        9.900e-10        1.491e-10         25.0000       
                 1               
  1.902e-08        9.800e-10        1.491e-10         25.0000       
                 1               
  1.903e-08        9.700e-10        1.491e-10         25.0000       
                 1               
  1.904e-08        9.600e-10        1.491e-10         25.0000       
                 1               
  1.905e-08        9.500e-10        1.491e-10         25.0000       
                 1               
  1.906e-08        9.400e-10        1.491e-10         25.0000       
                 1               
  1.907e-08        9.300e-10        1.491e-10         25.0000       
                 1               
  1.908e-08        9.200e-10        1.491e-10         25.0000       
                 1               
  1.909e-08        9.100e-10        1.491e-10         25.0000       
                 1               
  1.910e-08        9.000e-10        1.491e-10         25.0000       
                 1               
  1.911e-08        8.900e-10        1.491e-10         25.0000       
                 1               
  1.912e-08        8.800e-10        1.491e-10         25.0000       
                 1               
  1.913e-08        8.700e-10        1.491e-10         25.0000       
                 1               
  1.914e-08        8.600e-10        1.491e-10         25.0000       
                 1               
  1.915e-08        8.500e-10        1.491e-10         25.0000       
                 1               
  1.916e-08        8.400e-10        1.491e-10         25.0000       
                 1               
  1.917e-08        8.300e-10        1.491e-10         25.0000       
                 1               
  1.918e-08        8.200e-10        1.491e-10         25.0000       
                 1               
  1.919e-08        8.100e-10        1.491e-10         25.0000       
                 1               
  1.920e-08        8.000e-10        1.491e-10         25.0000       
                 1               
  1.921e-08        7.900e-10        1.491e-10         25.0000       
                 1               
  1.922e-08        7.800e-10        1.491e-10         25.0000       
                 1               
  1.923e-08        7.700e-10        1.491e-10         25.0000       
                 1               
  1.924e-08        7.600e-10        1.491e-10         25.0000       
                 1               
  1.925e-08        7.500e-10        1.491e-10         25.0000       
                 1               
  1.926e-08        7.400e-10        1.491e-10         25.0000       
                 1               
  1.927e-08        7.300e-10        1.491e-10         25.0000       
                 1               
  1.928e-08        7.200e-10        1.491e-10         25.0000       
                 1               
  1.929e-08        7.100e-10        1.491e-10         25.0000       
                 1               
  1.930e-08        7.000e-10        1.491e-10         25.0000       
                 1               
  1.931e-08        6.900e-10        1.491e-10         25.0000       
                 1               
  1.932e-08        6.800e-10        1.491e-10         25.0000       
                 1               
  1.933e-08        6.700e-10        1.491e-10         25.0000       
                 1               
  1.934e-08        6.600e-10        1.491e-10         25.0000       
                 1               
  1.935e-08        6.500e-10        1.491e-10         25.0000       
                 1               
  1.936e-08        6.400e-10        1.490e-10         25.0000       
                 1               
  1.937e-08        6.300e-10        1.491e-10         25.0000       
                 1               
  1.938e-08        6.200e-10        1.491e-10         25.0000       
                 1               
  1.939e-08        6.100e-10        1.491e-10         25.0000       
                 1               
  1.940e-08        6.000e-10        1.491e-10         25.0000       
                 1               
  1.941e-08        5.900e-10        1.491e-10         25.0000       
                 1               
  1.942e-08        5.800e-10        1.491e-10         25.0000       
                 1               
  1.943e-08        5.700e-10        1.491e-10         25.0000       
                 1               
  1.944e-08        5.600e-10        1.491e-10         25.0000       
                 1               
  1.945e-08        5.500e-10        1.491e-10         25.0000       
                 1               
  1.946e-08        5.400e-10        1.491e-10         25.0000       
                 1               
  1.947e-08        5.300e-10        1.491e-10         25.0000       
                 1               
  1.948e-08        5.200e-10        1.491e-10         25.0000       
                 1               
  1.949e-08        5.100e-10        1.491e-10         25.0000       
                 1               
  1.950e-08        5.000e-10        1.491e-10         25.0000       
                 1               
  1.951e-08        4.900e-10        1.490e-10         25.0000       
                 1               
  1.952e-08        4.800e-10        1.491e-10         25.0000       
                 1               
  1.953e-08        4.700e-10        1.491e-10         25.0000       
                 1               
  1.954e-08        4.600e-10        1.491e-10         25.0000       
                 1               
  1.955e-08        4.500e-10        1.491e-10         25.0000       
                 1               
  1.956e-08        4.400e-10        1.491e-10         25.0000       
                 1               
  1.957e-08        4.300e-10        1.491e-10         25.0000       
                 1               
  1.958e-08        4.200e-10        1.490e-10         25.0000       
                 1               
  1.959e-08        4.100e-10        1.491e-10         25.0000       
                 1               
  1.960e-08        4.000e-10        1.491e-10         25.0000       
                 1               
  1.961e-08        3.900e-10        1.491e-10         25.0000       
                 1               
  1.962e-08        3.800e-10        1.491e-10         25.0000       
                 1               
  1.963e-08        3.700e-10        1.491e-10         25.0000       
                 1               
  1.964e-08        3.600e-10        1.491e-10         25.0000       
                 1               
  1.965e-08        3.500e-10        1.491e-10         25.0000       
                 1               
  1.966e-08        3.400e-10        1.490e-10         25.0000       
                 1               
  1.967e-08        3.300e-10        1.491e-10         25.0000       
                 1               
  1.968e-08        3.200e-10        1.491e-10         25.0000       
                 1               
  1.969e-08        3.100e-10        1.491e-10         25.0000       
                 1               
  1.970e-08        3.000e-10        1.491e-10         25.0000       
                 1               
  1.971e-08        2.900e-10        1.491e-10         25.0000       
                 1               
  1.972e-08        2.800e-10        1.491e-10         25.0000       
                 1               
  1.973e-08        2.700e-10        1.491e-10         25.0000       
                 1               
  1.974e-08        2.600e-10        1.491e-10         25.0000       
                 1               
  1.975e-08        2.500e-10        1.491e-10         25.0000       
                 1               
  1.976e-08        2.400e-10        1.491e-10         25.0000       
                 1               
  1.977e-08        2.300e-10        1.491e-10         25.0000       
                 1               
  1.978e-08        2.200e-10        1.491e-10         25.0000       
                 1               
  1.979e-08        2.100e-10        1.491e-10         25.0000       
                 1               
  1.980e-08        2.000e-10        1.491e-10         25.0000       
                 1               
  1.981e-08        1.900e-10        1.492e-10         25.0000       
                 1               
  1.982e-08        1.800e-10        1.493e-10         25.0000       
                 1               
  1.983e-08        1.700e-10        1.495e-10         25.0000       
                 1               
  1.984e-08        1.600e-10        1.498e-10         25.0000       
                 1               
  1.985e-08        1.500e-10        1.502e-10         25.0000       
                 1               
  1.986e-08        1.400e-10        1.508e-10         25.0000       
                 1               
  1.987e-08        1.300e-10        1.518e-10         25.0000       
                 1               
  1.988e-08        1.200e-10        1.533e-10         25.0000       
                 1               
  1.989e-08        1.100e-10        1.556e-10         25.0000       
                 1               
  1.990e-08        1.000e-10        1.593e-10         25.0000       
                 1               
  1.991e-08        9.000e-11        1.653e-10         25.0000       
                 1               
  1.992e-08        8.000e-11        1.769e-10         25.0000       
                 1               
  1.993e-08        7.000e-11        2.206e-10         25.0000       
                 1               
  1.994e-08        6.000e-11          failed          25.0000       
                 1               
  1.995e-08        5.000e-11          failed          25.0000       
                 1               
  1.996e-08        4.000e-11          failed          25.0000       
                 1               
  1.997e-08        3.000e-11          failed          25.0000       
                 1               
  1.998e-08        2.000e-11          failed          25.0000       
                 1               
  1.999e-08        1.000e-11          failed          25.0000       
                 1               
  2.000e-08          0.               failed          25.0000       
                 1               
  2.001e-08       -1.000e-11          failed          25.0000       
                 1               
  2.002e-08       -2.000e-11          failed          25.0000       
                 1               
  2.003e-08       -3.000e-11          failed          25.0000       
                 1               
  2.004e-08       -4.000e-11          failed          25.0000       
                 1               
  2.005e-08       -5.000e-11          failed          25.0000       
                 1               
  2.006e-08       -6.000e-11          failed          25.0000       
                 1               
  2.007e-08       -7.000e-11          failed          25.0000       
                 1               
  2.008e-08       -8.000e-11          failed          25.0000       
                 1               
  2.009e-08       -9.000e-11          failed          25.0000       
                 1               
  2.010e-08       -1.000e-10          failed          25.0000       
                 1               
  2.011e-08       -1.100e-10          failed          25.0000       
                 1               
  2.012e-08       -1.200e-10          failed          25.0000       
                 1               
  2.013e-08       -1.300e-10          failed          25.0000       
                 1               
  2.014e-08       -1.400e-10          failed          25.0000       
                 1               
  2.015e-08       -1.500e-10          failed          25.0000       
                 1               
  2.016e-08       -1.600e-10          failed          25.0000       
                 1               
  2.017e-08       -1.700e-10          failed          25.0000       
                 1               
  2.018e-08       -1.800e-10          failed          25.0000       
                 1               
  2.019e-08       -1.900e-10          failed          25.0000       
                 1               
  2.020e-08       -2.000e-10          failed          25.0000       
                 1               
  2.021e-08       -2.100e-10          failed          25.0000       
                 1               
  2.022e-08       -2.200e-10          failed          25.0000       
                 1               
  2.023e-08       -2.300e-10          failed          25.0000       
                 1               
  2.024e-08       -2.400e-10          failed          25.0000       
                 1               
  2.025e-08       -2.500e-10          failed          25.0000       
                 1               
  2.026e-08       -2.600e-10          failed          25.0000       
                 1               
  2.027e-08       -2.700e-10          failed          25.0000       
                 1               
  2.028e-08       -2.800e-10          failed          25.0000       
                 1               
  2.029e-08       -2.900e-10          failed          25.0000       
                 1               
  2.030e-08       -3.000e-10          failed          25.0000       
                 1               
  2.031e-08       -3.100e-10          failed          25.0000       
                 1               
  2.032e-08       -3.200e-10          failed          25.0000       
                 1               
  2.033e-08       -3.300e-10          failed          25.0000       
                 1               
  2.034e-08       -3.400e-10          failed          25.0000       
                 1               
  2.035e-08       -3.500e-10          failed          25.0000       
                 1               
  2.036e-08       -3.600e-10          failed          25.0000       
                 1               
  2.037e-08       -3.700e-10          failed          25.0000       
                 1               
  2.038e-08       -3.800e-10          failed          25.0000       
                 1               
  2.039e-08       -3.900e-10          failed          25.0000       
                 1               
  2.040e-08       -4.000e-10          failed          25.0000       
                 1               
  2.041e-08       -4.100e-10          failed          25.0000       
                 1               
  2.042e-08       -4.200e-10          failed          25.0000       
                 1               
  2.043e-08       -4.300e-10          failed          25.0000       
                 1               
  2.044e-08       -4.400e-10          failed          25.0000       
                 1               
  2.045e-08       -4.500e-10          failed          25.0000       
                 1               
  2.046e-08       -4.600e-10          failed          25.0000       
                 1               
  2.047e-08       -4.700e-10          failed          25.0000       
                 1               
  2.048e-08       -4.800e-10          failed          25.0000       
                 1               
  2.049e-08       -4.900e-10          failed          25.0000       
                 1               
  2.050e-08       -5.000e-10          failed          25.0000       
                 1               
  2.051e-08       -5.100e-10          failed          25.0000       
                 1               
  2.052e-08       -5.200e-10          failed          25.0000       
                 1               
  2.053e-08       -5.300e-10          failed          25.0000       
                 1               
  2.054e-08       -5.400e-10          failed          25.0000       
                 1               
  2.055e-08       -5.500e-10          failed          25.0000       
                 1               
  2.056e-08       -5.600e-10          failed          25.0000       
                 1               
  2.057e-08       -5.700e-10          failed          25.0000       
                 1               
  2.058e-08       -5.800e-10          failed          25.0000       
                 1               
  2.059e-08       -5.900e-10          failed          25.0000       
                 1               
  2.060e-08       -6.000e-10          failed          25.0000       
                 1               
  2.061e-08       -6.100e-10          failed          25.0000       
                 1               
  2.062e-08       -6.200e-10          failed          25.0000       
                 1               
  2.063e-08       -6.300e-10          failed          25.0000       
                 1               
  2.064e-08       -6.400e-10          failed          25.0000       
                 1               
  2.065e-08       -6.500e-10          failed          25.0000       
                 1               
  2.066e-08       -6.600e-10          failed          25.0000       
                 1               
  2.067e-08       -6.700e-10          failed          25.0000       
                 1               
  2.068e-08       -6.800e-10          failed          25.0000       
                 1               
  2.069e-08       -6.900e-10          failed          25.0000       
                 1               
  2.070e-08       -7.000e-10          failed          25.0000       
                 1               
  2.071e-08       -7.100e-10          failed          25.0000       
                 1               
  2.072e-08       -7.200e-10          failed          25.0000       
                 1               
  2.073e-08       -7.300e-10          failed          25.0000       
                 1               
  2.074e-08       -7.400e-10          failed          25.0000       
                 1               
  2.075e-08       -7.500e-10          failed          25.0000       
                 1               
  2.076e-08       -7.600e-10          failed          25.0000       
                 1               
  2.077e-08       -7.700e-10          failed          25.0000       
                 1               
  2.078e-08       -7.800e-10          failed          25.0000       
                 1               
  2.079e-08       -7.900e-10          failed          25.0000       
                 1               
  2.080e-08       -8.000e-10          failed          25.0000       
                 1               
  2.081e-08       -8.100e-10          failed          25.0000       
                 1               
  2.082e-08       -8.200e-10          failed          25.0000       
                 1               
  2.083e-08       -8.300e-10          failed          25.0000       
                 1               
  2.084e-08       -8.400e-10          failed          25.0000       
                 1               
  2.085e-08       -8.500e-10          failed          25.0000       
                 1               
  2.086e-08       -8.600e-10          failed          25.0000       
                 1               
  2.087e-08       -8.700e-10          failed          25.0000       
                 1               
  2.088e-08       -8.800e-10          failed          25.0000       
                 1               
  2.089e-08       -8.900e-10          failed          25.0000       
                 1               
  2.090e-08       -9.000e-10          failed          25.0000       
                 1               
  2.091e-08       -9.100e-10          failed          25.0000       
                 1               
  2.092e-08       -9.200e-10          failed          25.0000       
                 1               
  2.093e-08       -9.300e-10          failed          25.0000       
                 1               
  2.094e-08       -9.400e-10          failed          25.0000       
                 1               
  2.095e-08       -9.500e-10          failed          25.0000       
                 1               
  2.096e-08       -9.600e-10          failed          25.0000       
                 1               
  2.097e-08       -9.700e-10          failed          25.0000       
                 1               
  2.098e-08       -9.800e-10          failed          25.0000       
                 1               
  2.099e-08       -9.900e-10          failed          25.0000       
                 1               
  2.100e-08       -1.000e-09          failed          25.0000       
                 1               
  2.101e-08       -1.010e-09          failed          25.0000       
                 1               
  2.102e-08       -1.020e-09          failed          25.0000       
                 1               
  2.103e-08       -1.030e-09          failed          25.0000       
                 1               
  2.104e-08       -1.040e-09          failed          25.0000       
                 1               
  2.105e-08       -1.050e-09          failed          25.0000       
                 1               
  2.106e-08       -1.060e-09          failed          25.0000       
                 1               
  2.107e-08       -1.070e-09          failed          25.0000       
                 1               
  2.108e-08       -1.080e-09          failed          25.0000       
                 1               
  2.109e-08       -1.090e-09          failed          25.0000       
                 1               
  2.110e-08       -1.100e-09          failed          25.0000       
                 1               
  2.111e-08       -1.110e-09          failed          25.0000       
                 1               
  2.112e-08       -1.120e-09          failed          25.0000       
                 1               
  2.113e-08       -1.130e-09          failed          25.0000       
                 1               
  2.114e-08       -1.140e-09          failed          25.0000       
                 1               
  2.115e-08       -1.150e-09          failed          25.0000       
                 1               
  2.116e-08       -1.160e-09          failed          25.0000       
                 1               
  2.117e-08       -1.170e-09          failed          25.0000       
                 1               
  2.118e-08       -1.180e-09          failed          25.0000       
                 1               
  2.119e-08       -1.190e-09          failed          25.0000       
                 1               
  2.120e-08       -1.200e-09          failed          25.0000       
                 1               
  2.121e-08       -1.210e-09          failed          25.0000       
                 1               
  2.122e-08       -1.220e-09          failed          25.0000       
                 1               
  2.123e-08       -1.230e-09          failed          25.0000       
                 1               
  2.124e-08       -1.240e-09          failed          25.0000       
                 1               
  2.125e-08       -1.250e-09          failed          25.0000       
                 1               
  2.126e-08       -1.260e-09          failed          25.0000       
                 1               
  2.127e-08       -1.270e-09          failed          25.0000       
                 1               
  2.128e-08       -1.280e-09          failed          25.0000       
                 1               
  2.129e-08       -1.290e-09          failed          25.0000       
                 1               
  2.130e-08       -1.300e-09          failed          25.0000       
                 1               
  2.131e-08       -1.310e-09          failed          25.0000       
                 1               
  2.132e-08       -1.320e-09          failed          25.0000       
                 1               
  2.133e-08       -1.330e-09          failed          25.0000       
                 1               
  2.134e-08       -1.340e-09          failed          25.0000       
                 1               
  2.135e-08       -1.350e-09          failed          25.0000       
                 1               
  2.136e-08       -1.360e-09          failed          25.0000       
                 1               
  2.137e-08       -1.370e-09          failed          25.0000       
                 1               
  2.138e-08       -1.380e-09          failed          25.0000       
                 1               
  2.139e-08       -1.390e-09          failed          25.0000       
                 1               
  2.140e-08       -1.400e-09          failed          25.0000       
                 1               
  2.141e-08       -1.410e-09          failed          25.0000       
                 1               
  2.142e-08       -1.420e-09          failed          25.0000       
                 1               
  2.143e-08       -1.430e-09          failed          25.0000       
                 1               
  2.144e-08       -1.440e-09          failed          25.0000       
                 1               
  2.145e-08       -1.450e-09          failed          25.0000       
                 1               
  2.146e-08       -1.460e-09          failed          25.0000       
                 1               
  2.147e-08       -1.470e-09          failed          25.0000       
                 1               
  2.148e-08       -1.480e-09          failed          25.0000       
                 1               
  2.149e-08       -1.490e-09          failed          25.0000       
                 1               
  2.150e-08       -1.500e-09          failed          25.0000       
                 1               
  2.151e-08       -1.510e-09          failed          25.0000       
                 1               
  2.152e-08       -1.520e-09          failed          25.0000       
                 1               
  2.153e-08       -1.530e-09          failed          25.0000       
                 1               
  2.154e-08       -1.540e-09          failed          25.0000       
                 1               
  2.155e-08       -1.550e-09          failed          25.0000       
                 1               
  2.156e-08       -1.560e-09          failed          25.0000       
                 1               
  2.157e-08       -1.570e-09          failed          25.0000       
                 1               
  2.158e-08       -1.580e-09          failed          25.0000       
                 1               
  2.159e-08       -1.590e-09          failed          25.0000       
                 1               
  2.160e-08       -1.600e-09          failed          25.0000       
                 1               
  2.161e-08       -1.610e-09          failed          25.0000       
                 1               
  2.162e-08       -1.620e-09          failed          25.0000       
                 1               
  2.163e-08       -1.630e-09          failed          25.0000       
                 1               
  2.164e-08       -1.640e-09          failed          25.0000       
                 1               
  2.165e-08       -1.650e-09          failed          25.0000       
                 1               
  2.166e-08       -1.660e-09          failed          25.0000       
                 1               
  2.167e-08       -1.670e-09          failed          25.0000       
                 1               
  2.168e-08       -1.680e-09          failed          25.0000       
                 1               
  2.169e-08       -1.690e-09          failed          25.0000       
                 1               
  2.170e-08       -1.700e-09          failed          25.0000       
                 1               
  2.171e-08       -1.710e-09          failed          25.0000       
                 1               
  2.172e-08       -1.720e-09          failed          25.0000       
                 1               
  2.173e-08       -1.730e-09          failed          25.0000       
                 1               
  2.174e-08       -1.740e-09          failed          25.0000       
                 1               
  2.175e-08       -1.750e-09          failed          25.0000       
                 1               
  2.176e-08       -1.760e-09          failed          25.0000       
                 1               
  2.177e-08       -1.770e-09          failed          25.0000       
                 1               
  2.178e-08       -1.780e-09          failed          25.0000       
                 1               
  2.179e-08       -1.790e-09          failed          25.0000       
                 1               
  2.180e-08       -1.800e-09          failed          25.0000       
                 1               
  2.181e-08       -1.810e-09          failed          25.0000       
                 1               
  2.182e-08       -1.820e-09          failed          25.0000       
                 1               
  2.183e-08       -1.830e-09          failed          25.0000       
                 1               
  2.184e-08       -1.840e-09          failed          25.0000       
                 1               
  2.185e-08       -1.850e-09          failed          25.0000       
                 1               
  2.186e-08       -1.860e-09          failed          25.0000       
                 1               
  2.187e-08       -1.870e-09          failed          25.0000       
                 1               
  2.188e-08       -1.880e-09          failed          25.0000       
                 1               
  2.189e-08       -1.890e-09          failed          25.0000       
                 1               
  2.190e-08       -1.900e-09          failed          25.0000       
                 1               
  2.191e-08       -1.910e-09          failed          25.0000       
                 1               
  2.192e-08       -1.920e-09          failed          25.0000       
                 1               
  2.193e-08       -1.930e-09          failed          25.0000       
                 1               
  2.194e-08       -1.940e-09          failed          25.0000       
                 1               
  2.195e-08       -1.950e-09          failed          25.0000       
                 1               
  2.196e-08       -1.960e-09          failed          25.0000       
                 1               
  2.197e-08       -1.970e-09          failed          25.0000       
                 1               
  2.198e-08       -1.980e-09          failed          25.0000       
                 1               
  2.199e-08       -1.990e-09          failed          25.0000       
                 1               
  2.200e-08       -2.000e-09          failed          25.0000       
                 1               